Version 4
SHEET 1 5945676 13421556
WIRE 1456 -160 1424 -160
WIRE 1552 -160 1520 -160
WIRE 2128 -160 2096 -160
WIRE 2224 -160 2192 -160
WIRE 2560 -160 2528 -160
WIRE 2672 -160 2624 -160
WIRE 1424 -48 1424 -160
WIRE 1440 -48 1424 -48
WIRE 1552 -48 1552 -160
WIRE 1552 -48 1520 -48
WIRE 2096 -48 2096 -160
WIRE 2112 -48 2096 -48
WIRE 2224 -48 2224 -160
WIRE 2224 -48 2192 -48
WIRE 2528 -48 2528 -160
WIRE 2560 -48 2528 -48
WIRE 2672 -48 2672 -160
WIRE 2672 -48 2640 -48
WIRE 2528 32 2528 -48
WIRE 2576 32 2528 32
WIRE 2096 48 2096 -48
WIRE 2128 48 2096 48
WIRE 2672 48 2672 -48
WIRE 2672 48 2640 48
WIRE 2704 48 2672 48
WIRE 2816 48 2784 48
WIRE 2864 48 2816 48
WIRE 2928 48 2864 48
WIRE 1424 64 1424 -48
WIRE 1456 64 1424 64
WIRE 2224 64 2224 -48
WIRE 2224 64 2192 64
WIRE 2288 64 2224 64
WIRE 2320 64 2288 64
WIRE 2432 64 2384 64
WIRE 2464 64 2432 64
WIRE 2576 64 2464 64
WIRE 1552 80 1552 -48
WIRE 1552 80 1520 80
WIRE 1616 80 1552 80
WIRE 1648 80 1616 80
WIRE 1760 80 1728 80
WIRE 1792 80 1760 80
WIRE 1904 80 1872 80
WIRE 1968 80 1904 80
WIRE 2000 80 1968 80
WIRE 2080 80 2064 80
WIRE 2128 80 2080 80
WIRE 1088 96 1024 96
WIRE 1136 96 1088 96
WIRE 1280 96 1216 96
WIRE 1344 96 1280 96
WIRE 1392 96 1344 96
WIRE 1456 96 1392 96
WIRE 1024 128 1024 96
WIRE 1280 128 1280 96
WIRE 1392 128 1392 96
WIRE 1760 128 1760 80
WIRE 1904 128 1904 80
WIRE 2080 128 2080 80
WIRE 2432 128 2432 64
WIRE 2528 128 2528 32
WIRE 2816 128 2816 48
WIRE 1024 240 1024 208
WIRE 1280 240 1280 192
WIRE 1392 240 1392 208
WIRE 1760 240 1760 192
WIRE 1904 240 1904 192
WIRE 2080 240 2080 208
WIRE 2432 240 2432 208
WIRE 2528 240 2528 208
WIRE 2816 240 2816 192
FLAG 1024 240 0
FLAG 2288 64 V6
FLAG 1616 80 V5
FLAG 1280 240 0
FLAG 1760 240 0
FLAG 1904 240 0
FLAG 2080 240 0
FLAG 1392 240 0
FLAG 1968 80 AFC
FLAG 1088 96 IN
FLAG 1344 96 IN2
FLAG 2432 240 0
FLAG 2464 64 GA
FLAG 2528 240 0
FLAG 2864 48 V4
FLAG 2816 240 0
SYMBOL voltage 1024 112 R0
WINDOW 0 -103 52 Left 2
WINDOW 3 -104 52 Left 2
WINDOW 123 -104 80 Left 2
WINDOW 39 0 0 Left 0
SYMATTR InstName V1
SYMATTR Value ""
SYMATTR Value2 AC 1.0
SYMBOL res 1232 80 R90
WINDOW 0 -35 55 VBottom 2
WINDOW 3 -34 52 VTop 2
SYMATTR InstName R1
SYMATTR Value 10K
SYMBOL res 1536 -64 R90
WINDOW 0 -30 58 VBottom 2
WINDOW 3 -30 55 VTop 2
SYMATTR InstName R2
SYMATTR Value 10K
SYMBOL res 1744 64 R90
WINDOW 0 -30 57 VBottom 2
WINDOW 3 -32 52 VTop 2
SYMATTR InstName R4
SYMATTR Value 22K
SYMBOL cap 2192 -176 R90
WINDOW 0 -16 -21 VBottom 2
WINDOW 3 -16 -26 VTop 2
SYMATTR InstName C1
SYMATTR Value 10n
SYMBOL res 2096 224 R180
WINDOW 0 -40 78 Left 2
WINDOW 3 -76 49 Left 2
SYMATTR InstName R6
SYMATTR Value 5.10K
SYMBOL OPAMPS\\OPAMP 1488 16 R0
SYMATTR InstName U1
SYMATTR SpiceLine2 GBW=3Meg
SYMBOL OPAMPS\\OPAMP 2160 0 R0
SYMATTR InstName U2
SYMATTR SpiceLine2 GBW=3Meg
SYMBOL res 1888 64 R90
WINDOW 0 -34 56 VBottom 2
WINDOW 3 -32 49 VTop 2
SYMATTR InstName R3
SYMATTR Value 22K
SYMBOL cap 2064 64 R90
WINDOW 0 -40 40 VBottom 2
WINDOW 3 -38 28 VTop 2
SYMATTR InstName C2
SYMATTR Value 100n
SYMBOL res 2208 -64 R90
WINDOW 0 -32 56 VBottom 2
WINDOW 3 -33 51 VTop 2
SYMATTR InstName R8
SYMATTR Value 10K
SYMBOL cap 1520 -176 R90
WINDOW 0 -14 -9 VBottom 2
WINDOW 3 -18 -14 VTop 2
SYMATTR InstName C3
SYMATTR Value 10n
SYMBOL cap 1264 192 M180
WINDOW 0 44 48 Left 2
WINDOW 3 41 23 Left 2
SYMATTR InstName C4
SYMATTR Value 10n
SYMBOL cap 1744 192 M180
WINDOW 0 46 43 Left 2
WINDOW 3 47 15 Left 2
SYMATTR InstName C5
SYMATTR Value 10n
SYMBOL cap 1888 192 M180
WINDOW 0 46 43 Left 2
WINDOW 3 47 15 Left 2
SYMATTR InstName C6
SYMATTR Value 10n
SYMBOL res 1408 224 R180
WINDOW 0 -40 81 Left 2
WINDOW 3 -70 49 Left 2
SYMATTR InstName R5
SYMATTR Value 100K
SYMBOL cap 2384 48 R90
WINDOW 0 -40 40 VBottom 2
WINDOW 3 -38 28 VTop 2
SYMATTR InstName C7
SYMATTR Value 100n
SYMBOL res 2448 224 R180
WINDOW 0 -40 78 Left 2
WINDOW 3 -52 49 Left 2
SYMATTR InstName R7
SYMATTR Value 15k
SYMBOL OPAMPS\\OPAMP 2608 -16 R0
SYMATTR InstName U3
SYMATTR SpiceLine2 GBW=3Meg
SYMBOL res 2544 224 R180
WINDOW 0 -40 78 Left 2
WINDOW 3 -52 49 Left 2
SYMATTR InstName R9
SYMATTR Value 51
SYMBOL res 2656 -64 R90
WINDOW 0 -32 56 VBottom 2
WINDOW 3 -33 51 VTop 2
SYMATTR InstName R10
SYMATTR Value 5.1k
SYMBOL cap 2624 -176 R90
WINDOW 0 -16 -21 VBottom 2
WINDOW 3 -16 -26 VTop 2
SYMATTR InstName C8
SYMATTR Value 10n
SYMBOL res 2800 32 R90
WINDOW 0 -32 56 VBottom 2
WINDOW 3 -33 51 VTop 2
SYMATTR InstName R11
SYMATTR Value 1k
SYMBOL cap 2800 192 M180
WINDOW 0 46 43 Left 2
WINDOW 3 47 15 Left 2
SYMATTR InstName C9
SYMATTR Value 100n
TEXT 1688 -120 Left 2 !.ac oct 25 1 100K
TEXT 1688 -80 Left 2 !.include opamp.sub
